212
Properties=species:S:1:pos:R:3:forces:R:3:charge:R:1 energy=-894.8611143223976 free_energy=-894.8611143223976 pbc="F F F"
O      -14.91743589       2.21695617       0.98963727      -0.27881529      -0.92469214      -2.37919987      -1.12896085
C      -14.77990513       2.45943931       2.33399252      -0.02442190       2.96069522       1.05219303       0.46333298
C      -14.74037304       1.23797422       3.18677440      -2.34964231      -0.03685147       1.14105656       0.48916692
O      -13.71747562       0.37384579       2.93650788       1.58627940      -0.04183060       2.43701893      -1.11708522
C      -13.62403400      -0.20351590       1.71437966       1.16589057      -0.49708629      -2.54928879       0.49845457
C      -12.41074573      -1.15264158       1.75540236      -1.54247270       0.01778612       2.04183739       0.48709255
O      -12.24126756      -1.78662510       0.55606570      -1.39537263       0.21236750      -1.66400779      -1.10460961
C      -11.17868759      -2.66054140       0.47466483       1.49648757       0.18413243      -0.16708018       0.47890764
C       -9.89230971      -1.85542057       0.70758884       0.58725618      -2.06105964       0.29202562       0.46006981
O       -9.87168047      -0.90598081      -0.29045695      -0.30640793       1.09294799      -0.17274389      -1.04036307
C       -8.72793903      -0.07800559      -0.26283975       0.33563760      -0.97547658      -0.66206655       0.40700984
C       -8.94751864       0.88381037      -1.41670097      -4.69165602      -2.88085059      -0.70847654       0.62527668
O       -8.09173884       1.81564389      -1.70229590      -2.00137521       4.15871938       1.31608243      -1.27818286
C       -6.87430454       1.83186740      -2.11689703       5.01299760       0.04461319      -2.54188998       0.61524367
C       -5.83446126       1.18859778      -1.18842746      -1.19634374      -1.13018162      -1.99740551       0.42307323
O       -4.63209207       1.36169507      -1.86879271      -0.20393919       0.82663951      -0.99661609      -1.10544407
C       -3.56762111       0.89153816      -1.14484141       1.10501672       1.38046916       1.94663887       0.48706341
C       -3.66759285      -0.56405180      -0.79914583      -2.71735202      -0.42069933      -1.34319507       0.55326021
O       -2.64533672      -1.08373577      -0.11746274      -0.45846209       0.27040355       4.17242167      -1.20856428
C       -1.44340635      -1.33222075      -0.60944761       2.40518393      -4.25539610      -1.34967243       0.54086244
C       -0.58144898      -0.32926688      -1.25241657       1.71360666      -1.31608911      -2.41340361       0.45680559
O       -0.20203436       0.76745018      -0.54264476      -0.68307912       2.26877603       0.00166883      -1.16169298
C        0.54173611       0.52557724       0.60244279      -0.17659382      -0.30110583       1.25509873       0.47417068
C        1.79988421      -0.24121173       0.31821206       0.13058617      -0.19661036       2.83303627       0.49044076
O        2.59879734       0.42092625      -0.55097359      -0.01797652      -1.21338300      -3.23905950      -1.16471612
C        3.11070989       1.62529302      -0.21446038       1.27043969       1.56512480       2.34686591       0.49064830
C        3.94225867       2.24505297      -1.29758114      -1.92360031       2.60306609      -1.13709345       0.48220283
O        5.03924110       1.57973756      -1.72882974       2.02005966       0.05544795       0.03467355      -1.12640190
C        4.74995381       0.33094119      -2.23813474       0.79375361      -2.25677197       0.61837630       0.50423938
C        5.99575335      -0.33095826      -2.84393189       0.47787408       4.13959250      -0.44811571       0.49954584
O        5.69777253      -1.54531685      -3.33706357       0.45143048      -1.58922236      -2.63895304      -1.13963401
C        5.24750239      -2.55007412      -2.53048927      -1.63461603      -0.89038727       1.28455183       0.47355306
C        6.25442372      -2.96758788      -1.48356510      -0.34346179      -1.85659234      -1.58692279       0.47473949
O        6.56052827      -1.91589541      -0.67933437      -0.41424095       1.54517793       0.81518310      -1.11975145
C        7.51748349      -2.17101829       0.30486948      -0.56192299       1.09747642       0.60995655       0.49220198
C        8.81601537      -2.62107269      -0.26655856      -0.51746842      -1.59878621      -1.87136004       0.49527994
O        9.73548625      -2.84807040       0.72376442       1.13520428      -0.92091082       0.67108277      -1.12025714
C       10.01527313      -1.71104768       1.49407357       1.21628211      -0.94292009       1.14836433       0.45809361
C       10.49665318      -0.58362084       0.63761912      -0.75100305      -0.58366479      -2.01236131       0.51663178
O       10.78533454       0.53736140       1.35620105      -0.71332578       1.54235611      -0.37699112      -1.14465332
C       11.79555175       0.39337750       2.27110570       0.57472349       0.33524895       1.45397320       0.47620201
C       11.97041276       1.76503818       2.94018086       0.20962210      -1.94193170       1.30721042       0.48243207
O       12.28755442       2.73061462       2.01729000      -0.16737782       1.49978152       0.25949058      -1.12026584
C       13.43988156       2.51274917       1.30421925       2.05097204       0.45609266      -4.23120244       0.43613845
C       14.68496751       2.41896585       2.14604312      -3.87826991      -0.48617024      -0.62190668       0.43419608
H      -14.60371222       2.93928743       0.41537090      -0.06062078      -0.06321424       0.48035460       0.57809454
H      -13.87281412       3.09093896       2.51429193      -0.06740401      -0.38441227       0.14752598       0.03424933
H      -15.63771613       3.13978188       2.61303472       0.34681894      -0.54865555       0.55796486       0.01680977
H      -14.71109678       1.55831491       4.27320488       0.30590604      -0.18399313      -0.87858534       0.03712931
H      -15.72352268       0.67711144       3.12710155       0.32385447       0.35712651      -0.25263222       0.03159365
H      -13.43609766       0.57826596       0.94241050      -0.21939814      -0.57201998      -0.02167967       0.06590567
H      -14.50781316      -0.78441873       1.45270715      -0.57710030      -0.14983050      -0.24207971       0.04330274
H      -11.57093991      -0.53604133       2.10444185       0.30263508      -0.16888033       0.02123338       0.05243306
H      -12.69362225      -1.93295184       2.52110920       0.57929205       0.44776530       0.07987019       0.03196503
H      -11.24837349      -3.49584537       1.20071797      -0.03388106      -0.07562979      -0.10849604       0.01653831
H      -11.11130578      -3.01257443      -0.58481619      -0.32425671      -0.09980874       0.63239864       0.06137444
H       -9.82332479      -1.45882901       1.73396493      -0.09430469       0.28248895       0.00550897       0.00763601
H       -9.02509759      -2.56624803       0.62060511      -0.13054915       0.22009974      -0.04968793       0.00817256
H       -8.58731113       0.43309884       0.68650917      -0.03471326       0.30085266       0.55734435       0.01929235
H       -7.89275380      -0.78369626      -0.41738897       0.52136430       0.38017508      -0.00183964       0.02075032
H       -9.26679669       0.24500031      -2.32920307       0.70041894       0.33187808       0.74903446       0.03711067
H       -9.96805634       1.38997121      -1.20297380       1.25036450      -0.45411786      -0.01280351       0.06751111
H       -6.71295662       1.36728441      -3.15668964      -0.22781830       0.18473733       0.79197243       0.02306975
H       -6.49362674       2.89744917      -2.24734401      -0.65688335      -0.71086721       0.09181522       0.05180401
H       -5.90173810       1.66306107      -0.22126476       0.28622669       0.07939528       0.94212363       0.02376221
H       -6.00607291       0.08842529      -1.20358313      -0.46107739       0.42077437       0.76713388       0.01246691
H       -2.66241517       1.21255042      -1.65662605       0.28737524      -0.22133517      -0.21006802       0.05825980
H       -3.56624079       1.44336170      -0.14548409       0.35161380      -0.35358835      -0.54871878       0.03732240
H       -4.58591690      -0.66122260      -0.14007060       0.88585387      -0.16511597      -0.45895981       0.06673160
H       -3.89600296      -1.18116167      -1.70862564       0.07170757       0.22348762      -0.04377548       0.02166865
H       -0.80235873      -1.92793243       0.14615246      -1.09206373       0.92810558      -0.32498720       0.03607708
H       -1.57848339      -2.15885033      -1.40774168       0.39587258       0.68184280       0.27572664       0.02828550
H       -0.97414959      -0.03783186      -2.24101705      -0.14728432       0.50350078       0.24826284       0.04762344
H        0.36182946      -0.92595115      -1.56872896      -1.03396413       0.39879874       0.23623095       0.04014617
H       -0.03511088      -0.01607409       1.37967255      -0.06725796      -0.00405054      -0.01547819       0.03990420
H        0.81174789       1.49750034       1.04455554      -0.22103075       0.00984350      -0.14988419       0.04828085
H        2.35512314      -0.26185995       1.31095919      -0.45713545      -0.53348955      -0.29908559       0.02747832
H        1.58139189      -1.27869156       0.00053614       0.42736097       0.29746348      -0.16133340       0.03752658
H        3.78126302       1.48122287       0.67793439      -0.06687273       0.07891144      -0.02834836       0.03487102
H        2.36913682       2.37865418       0.13619331      -0.07513100      -0.10720539      -0.34644062       0.04543811
H        4.26399211       3.29268577      -1.00907233      -0.21546689      -0.93903981       0.16483539       0.03997186
H        3.26306901       2.44385485      -2.19272294       0.17362813      -0.23218246       0.52601115       0.03373054
H        4.44983369      -0.35535735      -1.40613723      -0.11224955       0.45073441      -0.56310281       0.05657697
H        3.97684437       0.34890600      -2.99998094      -0.61799901       0.12289688      -0.34122941       0.04863875
H        6.30215263       0.31267857      -3.73436057      -0.19820843      -0.63704341       0.59182396       0.05201643
H        6.84071894      -0.23694384      -2.14512361      -0.03448264      -0.40356962       0.15083893       0.05543054
H        4.94425951      -3.44646409      -3.14699464       0.44822212       0.75996725       0.26439146       0.04475904
H        4.31091369      -2.20630982      -2.01181774       0.26866829      -0.40846775      -0.06215691       0.04453971
H        5.80360023      -3.83250123      -0.94748265       0.25864427      -0.03721377       0.20357004       0.02297504
H        7.14524121      -3.31358254      -2.05209434      -0.09117469      -0.19899447       0.14178768       0.01929127
H        7.13798507      -2.93665813       0.99593681       0.05074388      -0.15236504       0.33905411       0.03396727
H        7.63257951      -1.20076053       0.85426961      -0.19208974      -0.58709548      -0.25835206       0.06174667
H        9.19425479      -1.98205846      -1.08978524      -0.17932320       0.18786138       0.13477300       0.02701705
H        8.63507352      -3.62085461      -0.75228936       0.32190014       0.55010740       0.32837801       0.04783348
H        9.17574112      -1.47812074       2.15284269      -0.21793151       0.45406292       0.18034124       0.03151212
H       10.86698558      -2.03051496       2.15064894      -0.59054643       0.08180410      -0.23769600       0.05041470
H       11.37568183      -0.98811203       0.05652762      -0.27689753       0.35075677       0.15413000       0.03395495
H        9.70015485      -0.28592333      -0.10884583       0.72638530      -0.13485524       0.56782537       0.06113257
H       12.74777383       0.11517492       1.76480017      -0.12805307      -0.29760528       0.26724184       0.02604963
H       11.51464002      -0.35393492       3.05257643       0.49446391       0.20431414      -0.12276948       0.02166766
H       12.78275112       1.61805412       3.69907777      -0.35665373       0.21764455      -0.07349430       0.00964465
H       11.04772764       2.05316136       3.47347818       0.13049496       0.10251117      -0.25867132       0.06652665
H       13.38614690       1.65013288       0.59987323      -0.27744754       0.05858647       0.14805502       0.05135552
H       13.57128303       3.41452589       0.63301728      -0.38245443      -0.63286017       0.39000435       0.05986214
H       14.76732975       3.34199014       2.76310489      -3.17207746      -0.16265000      -2.34029538       0.05126516
H       14.75017862       1.49673269       2.72840427      -3.35904447       0.08502824       0.88464653       0.06467533
O       16.08256411       2.21695617       1.98963727       1.01082830       1.80758189      -2.78975256      -1.05670893
C       16.22009487       2.45943931       3.33399252       5.28329492       1.63913942       4.10551797       0.33264178
C       16.25962696       1.23797422       4.18677440      -1.82797121       0.11729606       1.52024747       0.49612078
O       17.28252438       0.37384579       3.93650788       1.53011772      -0.20112952       2.45562856      -1.11307192
C       17.37596600      -0.20351590       2.71437966       1.16870709      -0.39227453      -2.50562755       0.48945439
C       18.58925427      -1.15264158       2.75540236      -1.51302413      -0.02725425       1.98277507       0.48583716
O       18.75873244      -1.78662510       1.55606570      -1.44235746       0.25726016      -1.62680153      -1.10359597
C       19.82131241      -2.66054140       1.47466483       1.54138546       0.15388343      -0.16907734       0.47684935
C       21.10769029      -1.85542057       1.70758884       0.58666855      -2.05630892       0.27858791       0.45990533
O       21.12831953      -0.90598081       0.70954305      -0.32188571       1.08308804      -0.16450936      -1.03968275
C       22.27206097      -0.07800559       0.73716025       0.35076523      -0.96832628      -0.66649322       0.40688503
C       22.05248136       0.88381037      -0.41670097      -4.69714009      -2.87730539      -0.70669248       0.62512583
O       22.90826116       1.81564389      -0.70229590      -2.00415069       4.15832396       1.31817923      -1.27839911
C       24.12569546       1.83186740      -1.11689703       5.01507584       0.04331583      -2.54246199       0.61562645
C       25.16553874       1.18859778      -0.18842746      -1.19679258      -1.12949598      -1.99778280       0.42307967
O       26.36790793       1.36169507      -0.86879271      -0.20348269       0.82621579      -0.99623059      -1.10546112
C       27.43237889       0.89153816      -0.14484141       1.10460762       1.38053254       1.94642687       0.48706314
C       27.33240715      -0.56405180       0.20085417      -2.71708016      -0.42064907      -1.34332577       0.55326068
O       28.35466328      -1.08373577       0.88253726      -0.45844284       0.27033923       4.17246417      -1.20856440
C       29.55659365      -1.33222075       0.39055239       2.40515124      -4.25538505      -1.34966156       0.54086310
C       30.41855102      -0.32926688      -0.25241657       1.71360262      -1.31609122      -2.41341362       0.45680571
O       30.79796564       0.76745018       0.45735524      -0.68307748       2.26877568       0.00167600      -1.16169310
C       31.54173611       0.52557724       1.60244279      -0.17661431      -0.30109777       1.25508556       0.47417063
C       32.79988421      -0.24121173       1.31821206       0.13064464      -0.19658246       2.83302983       0.49044067
O       33.59879734       0.42092625       0.44902641      -0.01803346      -1.21334581      -3.23902641      -1.16471612
C       34.11070989       1.62529302       0.78553962       1.27042806       1.56508519       2.34694831       0.49064866
C       34.94225867       2.24505297      -0.29758114      -1.92316124       2.60281844      -1.13722577       0.48220268
O       36.03924110       1.57973756      -0.72882974       2.01936815       0.05563042       0.03460427      -1.12640405
C       35.74995381       0.33094119      -1.23813474       0.79365509      -2.25703626       0.61810134       0.50423777
C       36.99575335      -0.33095826      -1.84393189       0.47964301       4.14010063      -0.44631335       0.49953741
O       36.69777253      -1.54531685      -2.33706357       0.45041928      -1.58963545      -2.63930130      -1.13963628
C       36.24750239      -2.55007412      -1.53048927      -1.63487126      -0.89038416       1.28396766       0.47355002
C       37.25442372      -2.96758788      -0.48356510      -0.34138502      -1.85191809      -1.58383411       0.47472000
O       37.56052827      -1.91589541       0.32066563      -0.42176399       1.54020335       0.80676122      -1.11983550
C       38.51748349      -2.17101829       1.30486948      -0.55599335       1.10222014       0.61616775       0.49189541
C       39.81601537      -2.62107269       0.73344144      -0.49990453      -1.60162714      -1.85747906       0.49506623
O       40.73548625      -2.84807040       1.72376442       1.10823193      -0.94299782       0.64552846      -1.12057793
C       41.01527313      -1.71104768       2.49407357       1.22917195      -0.92652631       1.15465133       0.45765293
C       41.49665318      -0.58362084       1.63761912      -0.73312160      -0.53518686      -1.97405620       0.51849091
O       41.78533454       0.53736140       2.35620105      -0.77445957       1.48992920      -0.43107225      -1.13410938
C       42.79555175       0.39337750       3.27110570       0.60006006       0.30249083       1.48915592       0.47236279
C       42.97041276       1.76503818       3.94018086       0.29874663      -1.71143919       1.10178640       0.48311415
O       43.28755442       2.73061462       3.01729000      -1.21069296       1.46536824      -0.02929381      -1.11832869
C       44.43988156       2.51274917       2.30421925       1.37907289       0.80691938      -1.86701627       0.50203574
C       45.68496751       2.41896585       3.14604312       1.03672370       0.61674435      -0.47022550      -0.09516728
H       17.12718588       3.09093896       3.51429193       0.14310067      -0.61495109      -0.22980572       0.06417269
H       15.36228387       3.13978188       3.61303472       2.71225909      -0.74141404       2.62335284       0.05986087
H       16.28890322       1.55831491       5.27320488       0.30400782      -0.26806502      -0.83242353       0.07536902
H       15.27647732       0.67711144       4.12710155       0.35170673       0.25657684      -0.09367002       0.04109662
H       17.56390234       0.57826596       1.94241050      -0.17435863      -0.57325437      -0.03834938       0.06913827
H       16.49218684      -0.78441873       2.45270715      -0.58973532      -0.18417423      -0.24377451       0.03612427
H       19.42906009      -0.53604133       3.10444185       0.28945543      -0.16168939       0.01970376       0.05381158
H       18.30637775      -1.93295184       3.52110920       0.57337327       0.45780168       0.08437437       0.03572451
H       19.75162651      -3.49584537       2.20071797      -0.03859699      -0.07249287      -0.11210524       0.01645614
H       19.88869422      -3.01257443       0.41518381      -0.32882461      -0.09590447       0.63605482       0.06163200
H       21.17667521      -1.45882901       2.73396493      -0.08989879       0.28292748       0.01132757       0.00768244
H       21.97490241      -2.56624803       1.62060511      -0.13650683       0.22048574      -0.04583901       0.00846370
H       22.41268887       0.43309884       1.68650917      -0.03469604       0.30059647       0.55752652       0.01951906
H       23.10724620      -0.78369626       0.58261103       0.51951193       0.38005628      -0.00053308       0.02081175
H       21.73320331       0.24500031      -1.32920307       0.70145369       0.33066905       0.74799539       0.03694834
H       21.03194366       1.38997121      -0.20297380       1.25105312      -0.45263728      -0.01360707       0.06851722
H       24.28704338       1.36728441      -2.15668964      -0.22756338       0.18475367       0.79181822       0.02308809
H       24.50637326       2.89744917      -1.24734401      -0.65736570      -0.71106201       0.09197705       0.05178259
H       25.09826190       1.66306107       0.77873524       0.28639129       0.07962062       0.94226607       0.02377395
H       24.99392709       0.08842529      -0.20358313      -0.46077055       0.42018470       0.76687581       0.01247956
H       28.33758483       1.21255042      -0.65662605       0.28739763      -0.22136690      -0.21004618       0.05825984
H       27.43375921       1.44336170       0.85451591       0.35162786      -0.35357702      -0.54864303       0.03732233
H       26.41408310      -0.66122260       0.85992940       0.88585257      -0.16505488      -0.45886984       0.06673285
H       27.10399704      -1.18116167      -0.70862564       0.07168332       0.22348147      -0.04378806       0.02166855
H       30.19764127      -1.92793243       1.14615246      -1.09205902       0.92810333      -0.32498683       0.03607654
H       29.42151661      -2.15885033      -0.40774168       0.39587299       0.68184347       0.27572614       0.02828538
H       30.02585041      -0.03783186      -1.24101705      -0.14729033       0.50350151       0.24827409       0.04762354
H       31.36182946      -0.92595115      -0.56872896      -1.03396107       0.39879712       0.23623291       0.04014613
H       30.96488912      -0.01607409       2.37967255      -0.06726046      -0.00405084      -0.01547678       0.03990408
H       31.81174789       1.49750034       2.04455554      -0.22103108       0.00984079      -0.14988533       0.04828086
H       33.35512314      -0.26185995       2.31095919      -0.45712996      -0.53349948      -0.29910999       0.02747853
H       32.58139189      -1.27869156       1.00053614       0.42736490       0.29746255      -0.16133413       0.03752640
H       34.78126302       1.48122287       1.67793439      -0.06687561       0.07889967      -0.02839853       0.03487065
H       33.36913682       2.37865418       1.13619331      -0.07515909      -0.10719086      -0.34644862       0.04543792
H       35.26399211       3.29268577      -0.00907233      -0.21546805      -0.93901146       0.16485104       0.03997164
H       34.26306901       2.44385485      -1.19272294       0.17354852      -0.23212915       0.52599246       0.03373031
H       35.44983369      -0.35535735      -0.40613723      -0.11205912       0.45076454      -0.56312052       0.05657608
H       34.97684437       0.34890600      -1.99998094      -0.61821663       0.12301070      -0.34126508       0.04863919
H       37.30215263       0.31267857      -2.73436057      -0.19837155      -0.63709458       0.59166369       0.05201392
H       37.84071894      -0.23694384      -1.14512361      -0.03501040      -0.40387014       0.15048650       0.05541019
H       35.94425951      -3.44646409      -2.14699464       0.44805923       0.75993432       0.26413682       0.04475956
H       35.31091369      -2.20630982      -1.01181774       0.26842394      -0.40835015      -0.06225474       0.04453942
H       36.80360023      -3.83250123       0.05251735       0.25836944      -0.03765488       0.20347594       0.02296581
H       38.14524121      -3.31358254      -1.05209434      -0.09108651      -0.19879219       0.14252075       0.01927344
H       38.13798507      -2.93665813       1.99593681       0.05009881      -0.15300198       0.33880196       0.03390180
H       38.63257951      -1.20076053       1.85426961      -0.18895113      -0.59086578      -0.26008082       0.06145544
H       40.19425479      -1.98205846      -0.08978524      -0.17993827       0.18912921       0.13680728       0.02696420
H       39.63507352      -3.62085461       0.24771064       0.31936558       0.54697582       0.32660885       0.04776120
H       40.17574112      -1.47812074       3.15284269      -0.21653966       0.45234121       0.18151794       0.03165326
H       41.86698558      -2.03051496       3.15064894      -0.59449945       0.08918703      -0.24069956       0.04848247
H       42.37568183      -0.98811203       1.05652762      -0.27615521       0.34184141       0.15099041       0.03284039
H       40.70015485      -0.28592333       0.89115417       0.72206707      -0.13507453       0.56385492       0.06211900
H       43.74777383       0.11517492       2.76480017      -0.14676552      -0.30377659       0.25839042       0.02335297
H       42.51464002      -0.35393492       4.05257643       0.48838576       0.19260266      -0.12329438       0.01566950
H       43.78275112       1.61805412       4.69907777      -0.31862846       0.21965498      -0.04669784       0.01033739
H       42.04772764       2.05316136       4.47347818       0.12645720       0.07749724      -0.22429149       0.05064304
H       44.38614690       1.65013288       1.59987323      -0.18056343       0.05233071       0.20705917       0.02643223
H       44.57128303       3.41452589       1.63301728      -0.30092908      -0.63265534       0.47527537       0.04030134
H       45.76732975       3.34199014       3.76310489       0.00453601      -0.58608177       0.07170628       0.05112414
H       45.75017862       1.49673269       3.72840427       0.08358782       0.02668379       0.27127712       0.02604274
H       46.55425664       2.44252663       2.44112930      -0.32278430      -0.14168796       0.43990763       0.05038759
