%nprocshared=4
%chk=TMP.chk
#p opt b3lyp/6-31g(d,p) pop=(hirshfeld,full) geom=connectivity

Title Card Required

0 1
 P                  0.00000000    0.00000000   -0.22924243
 O                  0.19492891    1.60037580    0.34075758
 O                  1.28850165   -0.96900129    0.34075757
 C                  1.43545856    2.12836736   -0.13590909
 O                 -1.48343056   -0.63137451    0.34075757
 C                  1.12549092   -2.30732726   -0.13590909
 H                  2.24171398    1.52203322    0.22075758
 H                  1.55743162    3.12977211    0.22075758
 H                  1.43545856    2.12836736   -1.20590909
 C                 -2.56094948    0.17895990   -0.13590909
 H                  0.19726245   -2.70239786    0.22075757
 H                  1.12549093   -2.30732725   -1.20590909
 H                  1.93174634   -2.91366140    0.22075757
 H                 -3.48917796   -0.21611071    0.22075757
 H                 -2.43897643    1.18036465    0.22075757
 H                 -2.56094948    0.17895990   -1.20590909

 1 2 1.0 3 1.0 5 1.0
 2 4 1.0
 3 6 1.0
 4 9 1.0 8 1.0 7 1.0
 5 10 1.0
 6 13 1.0 11 1.0 12 1.0
 7
 8
 9
 10 16 1.0 14 1.0 15 1.0
 11
 12
 13
 14
 15
 16

